*HEADING
cubit(TPV14.inp): 12/11/2014: 08:23:29
version: 14.1
**
********************************** P A R T S **********************************
*PART, NAME=Part-Default
**
********************************** N O D E S **********************************
*NODE, NSET=ALLNODES
       1,   -4.831691e-13,    0.000000e+00,    0.000000e+00
       2,    1.039230e+01,   -6.000000e+00,    0.000000e+00
       3,   -1.600000e+01,    0.000000e+00,    0.000000e+00
       4,   -5.607695e+00,   -6.000000e+00,    0.000000e+00
       5,   -4.831691e-13,    0.000000e+00,   -1.500000e+01
       6,    1.039230e+01,   -6.000000e+00,   -1.500000e+01
       7,   -5.607695e+00,   -6.000000e+00,   -1.500000e+01
       8,   -1.600000e+01,    0.000000e+00,   -1.500000e+01
       9,    1.200000e+01,    0.000000e+00,   -1.500000e+01
      10,    2.239230e+01,   -6.000000e+00,   -1.500000e+01
      11,    1.200000e+01,    0.000000e+00,    0.000000e+00
      12,    2.239230e+01,   -6.000000e+00,    0.000000e+00
      13,    1.000000e+02,   -1.000000e+02,    0.000000e+00
      14,    1.000000e+02,    1.000000e+02,    0.000000e+00
      15,    1.000000e+02,   -8.050703e+01,    0.000000e+00
      16,    1.000000e+02,   -6.005166e+01,    0.000000e+00
      17,    1.000000e+02,   -4.002309e+01,    0.000000e+00
      18,    1.000000e+02,   -1.927427e+01,    0.000000e+00
      19,    1.000000e+02,    1.109273e+00,    0.000000e+00
      20,    1.000000e+02,    2.131165e+01,    0.000000e+00
** ... 808 like lines cut
**
********************************** E L E M E N T S ****************************
*ELEMENT, TYPE=C3D8R, ELSET=EB12
       2,       2,       1,      11,      12,       6,       5,       9,      10
*ELEMENT, TYPE=C3D8R, ELSET=EB13
       1,       6,       5,       8,       7,       2,       1,       3,       4
*ELEMENT, TYPE=C3D8R, ELSET=EB1
       3,       8,       5,     345,     346,       3,       1,      54,      53
       4,       5,       9,     347,     345,       1,      11,      55,      54
       5,      10,     348,     347,       9,      12,      56,      55,      11
       6,      10,     349,     350,     348,      12,      58,      57,      56
       7,      10,     351,     352,     349,      12,      60,      59,      58
       8,      10,       6,     353,     351,      12,       2,      61,      60
       9,       6,       7,     354,     353,       2,       4,      62,      61
      10,       7,       8,     355,     354,       4,       3,      63,      62
      11,     346,     356,     357,     358,      53,      66,      65,      64
      12,     346,     345,     359,     356,      53,      54,      67,      66
      13,     345,     347,     360,     359,      54,      55,      68,      67
      14,     347,     348,     361,     360,      55,      56,      69,      68
      15,     348,     350,     362,     361,      56,      57,      70,      69
      16,     350,     363,     364,     362,      57,      72,      71,      70
      17,     350,     349,     365,     363,      57,      58,      73,      72
      18,     349,     352,     366,     365,      58,      59,      74,      73
      19,     352,     367,     368,     366,      59,      76,      75,      74
      20,     352,     351,     369,     367,      59,      60,      77,      76
      21,     351,     353,     370,     369,      60,      61,      78,      77
      22,     353,     354,     371,     370,      61,      62,      79,      78
** ... 563 like lines cut
**
********************************** S I D E S E T S **********************************
*ELSET, ELSET=SS1_S1
     469,     470,     471,     472,     473,     474,     475,     476,     477,     478,
     479,     480,     481,     482,     483,     484,     485,     486,     487,     488,
     489,     490,     491,     492,     493,     494,     495,     496,     497,     498,
     499,     500,     501,     502,     503,     504,     505,     506,     507,     508,
     509,     510,     511,     512,     513,     514,     515,     516,     517,     518,
     519,     520,     521,     522,     523,     524,     525,     526,     527,     528,
     529,     530,     531,     532,     533,     534,     535,     536,     537,     538,
     539,     540,     541,     542,     543,     544,     545,     546,     547,     548,
     549,     550,     551,     552,     553,     554,     555,     556,     557,     558,
     559,     560,     561,     562,     563,     564,     565,     566,     567,     568,
     569,     570,     571,     572,     573,     574,     575,     576,     577,     578,
     579,     580,     581,     582,     583,     584,     585
*ELSET, ELSET=SS1_S3
      23,      24,      25,      26,      27,      28,      29,      30,      31,      32,
      33,      34,      35,      36,      37,      38,      39,      40,      41,      42,
      43,      44,      45,      46,      47,      48,      49,      50,      51,      52,
      53,      54,      55,      56,      57,      58,     140,     141,     142,     143,
     144,     145,     146,     147,     148,     149,     150,     151,     152,     153,
     154,     155,     156,     157,     158,     159,     160,     161,     162,     163,
     164,     165,     166,     167,     168,     169,     170,     171,     172,     173,
     174,     175,     257,     258,     259,     260,     261,     262,     263,     264,
     265,     266,     267,     268,     269,     270,     271,     272,     273,     274,
     275,     276,     277,     278,     279,     280,     281,     282,     283,     284,
     285,     286,     287,     288,     289,     290,     291,     292,     374,     375,
     376,     377,     378,     379,     380,     381,     382,     383,     384,     385,
     386,     387,     388,     389,     390,     391,     392,     393,     394,     395,
     396,     397,     398,     399,     400,     401,     402,     403,     404,     405,
     406,     407,     408,     409,     491,     492,     493,     494,     495,     496,
     497,     498,     499,     500,     501,     502,     503,     504,     505,     506,
     507,     508,     509,     510,     511,     512,     513,     514,     515,     516,
     517,     518,     519,     520,     521,     522,     523,     524,     525,     526
*ELSET, ELSET=SS1_S4
      32,      42,     149,     159,     266,     276,     383,     393,     500,     510
*ELSET, ELSET=SS1_S6
      23,      33,     140,     150,     257,     267,     374,     384,     491,     501
*SURFACE, NAME=SS1
SS1_S1, S1
SS1_S3, S3
SS1_S4, S4
SS1_S6, S6
*ELSET, ELSET=SS2_S1
       2
*ELSET, ELSET=SS2_S2
       1,       3,       4,       5,       6,       7,       8,       9,      10,      11,
      12,      13,      14,      15,      16,      17,      18,      19,      20,      21,
      22,      23,      24,      25,      26,      27,      28,      29,      30,      31,
      32,      33,      34,      35,      36,      37,      38,      39,      40,      41,
      42,      43,      44,      45,      46,      47,      48,      49,      50,      51,
      52,      53,      54,      55,      56,      57,      58,      59,      60,      61,
      62,      63,      64,      65,      66,      67,      68,      69,      70,      71,
      72,      73,      74,      75,      76,      77,      78,      79,      80,      81,
      82,      83,      84,      85,      86,      87,      88,      89,      90,      91,
      92,      93,      94,      95,      96,      97,      98,      99,     100,     101,
     102,     103,     104,     105,     106,     107,     108,     109,     110,     111,
     112,     113,     114,     115,     116,     117
*SURFACE, NAME=SS2
SS2_S1, S1
SS2_S2, S2
*ELSET, ELSET=SS4_S4
       1,       2
*SURFACE, NAME=SS4
SS4_S4, S4
*ELSET, ELSET=SS5_S3
       2
*SURFACE, NAME=SS5
SS5_S3, S3
**
********************************** P R O P E R T I E S ************************
*SOLID SECTION, ELSET=EB12, MATERIAL=Default-Steel
*SOLID SECTION, ELSET=EB13, MATERIAL=Default-Steel
*SOLID SECTION, ELSET=EB1, MATERIAL=Default-Steel
**
*END PART
**
**
**
********************************** E N D   P A R T S **********************************
**
**
********************************** A S S E M B L Y ************************************
**
*ASSEMBLY, NAME=ASSEMBLY1
**
*INSTANCE, NAME=Part-Default_1, PART=Part-Default
*END INSTANCE
**
*END ASSEMBLY
**
**
**
*MATERIAL, NAME = Default-Steel
*ELASTIC, TYPE=ISOTROPIC
2.068000e+05, 2.900000e-01
*DENSITY
7.000000e-06
*CONDUCTIVITY,TYPE=ISO
4.500000e-02
*SPECIFIC HEAT
5.000000e+02
**
**
************************************** H I S T O R Y *************************************
**
*PREPRINT
**
**************************************** S T E P 1 ***************************************
*STEP,INC=100,NAME=Default Set
**
*STATIC
1, 1, 1e-05, 1
**
**
**
**
*END STEP
